/*--------------------------------*- C++ -*----------------------------------*\
| =========                 |                                                 |
| \\      /  F ield         | OpenFOAM: The Open Source CFD Toolbox           |
|  \\    /   O peration     | Version:  2406                                  |
|   \\  /    A nd           | Website:  www.openfoam.com                      |
|    \\/     M anipulation  |                                                 |
\*---------------------------------------------------------------------------*/
FoamFile
{
    version     2.0;
    format      ascii;
    arch        "LSB;label=32;scalar=64";
    class       extendedFeatureEdgeMesh;
    location    "constant/extendedFeatureEdgeMesh";
    object      tesla_translated.extendedFeatureEdgeMesh;
}
// * * * * * * * * * * * * * * * * * * * * * * * * * * * * * * * * * * * * * //

// points

26514
(
(0.202313 0.332535 -0.191296)
(0.101263 0.332535 -0.191296)
(0.126715 0.777213 -0.14718)
(0.23587 0.594644 -0.171204)
(0.31662 0.551883 -0.0319458)
(0.316571 0.549429 -0.0298218)
(0.295428 0.416977 0.0794312)
(0.30976 0.326657 -0.137)
(0.289496 0.325827 -0.186096)
(-0.28952 0.325827 -0.186096)
(-0.20235 0.332535 -0.191296)
(-0.101263 0.332535 -0.191296)
(-0.100885 0.568594 -0.183142)
(-0.100714 0.594296 -0.169348)
(0.124811 0.777023 -0.150305)
(0.100714 0.594296 -0.169348)
(0.100812 0.589169 -0.182434)
(0.100885 0.568594 -0.183142)
(0.297089 0.595438 -0.158948)
(0.304913 0.592319 -0.138586)
(0.226801 0.748221 -0.118713)
(0.305255 0.592233 -0.135925)
(0.250909 0.391965 0.111292)
(0.25152 0.391965 0.110608)
(0.246332 0.382211 0.117004)
(0.250946 0.387259 0.11178)
(0.245685 0.386044 0.117175)
(0.249664 0.390451 0.112122)
(0.276154 0.135123 0.0833374)
(0.250787 0.389847 0.110217)
(0.290521 0.41788 0.0911499)
(0.290521 0.41962 0.0913696)
(0.306757 0.392111 0.0417114)
(0.306708 0.392264 0.0419312)
(0.30412 0.243491 -0.143982)
(0.303229 -0.376425 -0.15553)
(0.3034 -0.377194 -0.154456)
(0.288068 -0.376694 -0.186731)
(-0.156696 -0.769308 -0.173157)
(-0.300397 -0.643094 -0.176233)
(-0.269171 -0.546793 -0.0711792)
(-0.268768 -0.573965 -0.113391)
(-0.268768 -0.572604 -0.105774)
(-0.274957 -0.573965 -0.113391)
(-0.274957 -0.572604 -0.105774)
(-0.277313 -0.566428 -0.101575)
(-0.280609 -0.552383 -0.0855103)
(-0.280609 -0.5621 -0.139758)
(-0.277313 -0.569455 -0.11925)
(-0.274542 -0.561844 -0.154895)
(-0.269171 -0.561844 -0.154895)
(-0.277631 -0.571194 -0.114832)
(-0.276837 -0.561679 -0.0873413)
(-0.274664 -0.543631 -0.0723755)
(-0.274542 -0.546793 -0.0711792)
(-0.269073 -0.543631 -0.0723755)
(-0.275946 -0.558139 -0.153699)
(-0.303387 -0.377194 -0.154456)
(-0.303241 -0.376425 -0.15553)
(-0.302277 -0.377151 -0.157727)
(-0.288068 -0.376694 -0.186731)
(-0.309772 0.326657 -0.137)
(-0.309613 0.325754 -0.138245)
(-0.305292 0.592233 -0.135925)
(-0.297089 0.595438 -0.158948)
(-0.235883 0.594644 -0.171204)
(-0.100824 0.589169 -0.182434)
(-0.124811 0.777023 -0.150305)
(-0.126727 0.777213 -0.14718)
(0.21972 0.754434 -0.116638)
(0.210565 0.758798 -0.117908)
(0.210419 0.758743 -0.118665)
(0.125079 0.792618 -0.108435)
(0.124811 0.792703 -0.107922)
(0.211469 0.758359 -0.119055)
(0.208734 0.750644 -0.0176147)
(0.265948 -0.258786 0.083606)
(0.271649 -0.203287 0.0806763)
(0.256915 -0.187314 0.121936)
(0.256305 -0.182986 0.123865)
(0.219537 0.0942902 0.203455)
(0.221881 0.097226 0.203796)
(0.218475 0.132266 0.203528)
(0.224762 0.369724 0.161804)
(0.223627 0.368979 0.164001)
(0.272198 0.076059 0.0879272)
(0.27851 0.0707611 0.0806763)
(0.272992 -0.273819 0.0706909)
(0.284528 -0.242764 0.0818481)
(0.284381 -0.242654 0.0818481)
(0.288226 -0.179135 0.0831421)
(0.290643 -0.177927 0.0858765)
(0.290741 -0.177756 0.08302)
(0.293292 -0.17728 0.0760132)
(0.288275 -0.178452 0.0825806)
(0.290204 -0.178452 0.0835327)
(0.346979 -0.191293 0.0891968)
(0.296613 -0.231631 0.0853394)
(0.296759 -0.231699 0.0863159)
(0.291412 -0.231064 0.0858765)
(0.29632 -0.176254 0.117908)
(0.356097 -0.150418 0.0905151)
(0.356866 -0.150711 0.0911255)
(0.358331 -0.150198 0.0912231)
(0.358514 -0.149753 0.0906372)
(0.356512 -0.15029 0.0849487)
(0.352032 -0.17858 0.0841919)
(0.294244 -0.177591 0.0755737)
(0.350226 -0.187692 0.0913696)
(0.298676 -0.210764 0.116443)
(0.304315 -0.207901 0.118201)
(0.350482 -0.187442 0.0925171)
(0.352386 -0.151462 0.112415)
(0.268756 -0.265445 0.0792847)
(0.278693 0.0705414 0.0791626)
(0.280634 0.0727753 0.0776245)
(0.281549 0.0747589 0.0775024)
(0.296759 0.293356 0.0566528)
(0.296796 0.293558 0.0564575)
(0.294208 0.376511 0.0745972)
(0.295074 0.377756 0.0721069)
(0.294537 0.377628 0.0736938)
(0.296515 0.374222 0.0726929)
(0.296832 0.31149 0.0556274)
(0.296796 0.374551 0.0715942)
(0.301019 0.0668549 -0.146106)
(0.304474 0.241257 -0.14364)
(0.294464 -0.285196 -0.159924)
(0.295526 -0.286533 -0.156189)
(0.296393 -0.288663 -0.153552)
(0.297687 -0.291245 -0.153723)
(0.306256 -0.301865 -0.0168579)
(0.306256 -0.314084 -0.0182983)
(0.306256 -0.314053 -0.0182983)
(0.292682 -0.541196 -0.119226)
(0.292682 -0.472672 -0.102527)
(0.292682 -0.518326 -0.156335)
(0.305231 -0.522983 -0.210266)
(0.305231 -0.426096 -0.167126)
(0.292682 -0.475955 -0.146008)
(0.292682 -0.512973 -0.0859497)
(0.305231 -0.437173 -0.0616577)
(0.305231 -0.540921 -0.0396118)
(0.305231 -0.593948 -0.131458)
(0.299164 -0.4897 -0.130603)
(0.276825 -0.561679 -0.0873413)
(0.27464 -0.543631 -0.0723755)
(0.27453 -0.546793 -0.0711792)
(0.269171 -0.546793 -0.0711792)
(0.269049 -0.543631 -0.0723755)
(0.268768 -0.573965 -0.113391)
(0.268768 -0.572604 -0.105774)
(0.274933 -0.572604 -0.105774)
(0.274933 -0.573965 -0.113391)
(0.277618 -0.571194 -0.114832)
(0.277301 -0.566428 -0.101575)
(0.277301 -0.569455 -0.11925)
(0.280597 -0.5621 -0.139758)
(0.275946 -0.558139 -0.153699)
(0.27453 -0.561844 -0.154895)
(0.269171 -0.561844 -0.154895)
(0.280597 -0.552383 -0.0855103)
(0.305731 -0.630936 -0.152136)
(0.300409 -0.643094 -0.176233)
(0.156696 -0.769308 -0.173157)
(-0.305756 -0.630936 -0.152136)
(-0.314301 -0.553006 0.00255127)
(-0.24162 -0.67236 0.0167114)
(-0.241779 -0.672037 0.017981)
(-0.241046 -0.672763 0.0162231)
(-0.239203 -0.673019 0.0172729)
(-0.313983 -0.552017 0.00291748)
(-0.314301 -0.550455 0.00369873)
(-0.295526 -0.286533 -0.156189)
(-0.294476 -0.285196 -0.159924)
(-0.304425 0.238358 -0.143689)
(-0.316595 0.549429 -0.0298218)
(-0.31662 0.551883 -0.0319458)
(0.216217 0.738412 0.0269897)
(0.217596 0.738498 0.0275269)
(0.218634 0.737863 0.0282349)
(0.215314 0.738498 0.0282349)
(0.191241 0.746915 0.0471069)
(0.151544 0.761264 0.0473267)
(0.152521 0.761264 0.0479858)
(0.199384 0.743069 0.0455444)
(0.1992 0.743564 0.0449341)
(0.13891 0.766354 0.0309204)
(0.213605 0.738541 0.0299927)
(0.214752 0.737424 0.030481)
(0.221454 0.725467 0.072522)
(0.221063 0.722824 0.0746216)
(0.21933 0.736246 0.0299927)
(0.21933 0.738663 0.0270874)
(0.215143 0.431979 0.168396)
(0.21264 -0.0583099 0.199695)
(-0.0674255 -0.0994354 0.205188)
(0.266327 -0.268637 0.0819702)
(0.248395 -0.338791 0.0827515)
(0.255402 -0.334683 0.0817749)
(0.268024 -0.269901 0.0803345)
(0.272711 -0.277109 0.0694702)
(0.301068 -0.335947 0.0184204)
(0.301703 -0.336295 0.0171265)
(0.306256 -0.313437 -0.0182495)
(0.306256 -0.31105 -0.0179321)
(0.314276 -0.550455 0.00369873)
(0.313971 -0.552017 0.00291748)
(0.310345 -0.563828 0.0135376)
(-0.288007 -0.603159 0.020105)
(-0.286139 -0.606149 0.0195679)
(-0.297028 -0.288419 -0.152722)
(-0.296393 -0.288663 -0.153552)
(-0.297687 -0.291245 -0.153723)
(-0.301056 0.0668549 -0.146106)
(-0.290521 0.41962 0.0913696)
(0.22243 0.720218 0.0802124)
(0.223041 0.718936 0.0800903)
(0.223187 0.721103 0.0770142)
(0.222784 0.72048 0.0768921)
(0.269916 0.702121 0.0286743)
(0.219623 0.48765 0.149768)
(0.217682 0.488089 0.151355)
(0.230817 0.456558 0.138684)
(0.22724 0.459097 0.144568)
(0.218024 0.491006 0.149841)
(0.212933 0.42811 0.171008)
(-0.212665 -0.0583099 0.199695)
(0.246625 -0.340042 0.0815796)
(0.155939 -0.373087 0.0733521)
(0.162518 -0.363571 0.0774292)
(0.16203 -0.361124 0.0797729)
(0.162164 -0.361423 0.0812866)
(0.16275 -0.364499 0.0783081)
(0.15517 -0.36868 0.0825073)
(0.208282 -0.358841 0.0700073)
(0.252606 -0.338589 0.082605)
(0.284698 -0.274747 0.0573608)
(0.284625 -0.275662 0.0573608)
(0.28465 -0.27532 0.0573608)
(0.284698 -0.274557 0.0573608)
(0.284723 -0.274313 0.0573608)
(0.284747 -0.274063 0.0573608)
(0.286505 -0.248288 0.0574097)
(0.284406 -0.27908 0.0573608)
(0.28443 -0.278696 0.0573608)
(0.281232 -0.246616 0.0622192)
(0.280304 -0.251498 0.062561)
(0.282147 -0.241544 0.0619019)
(0.281537 -0.244748 0.0621216)
(0.281549 -0.244724 0.0621216)
(0.279608 -0.255307 0.0628296)
(0.275983 -0.274997 0.0641724)
(0.277057 -0.26918 0.0637817)
(0.276068 -0.274496 0.0641479)
(0.276117 -0.274228 0.0641235)
(0.282501 -0.239572 0.0617554)
(0.278375 -0.262131 0.063269)
(0.279779 -0.254446 0.0627563)
(0.302338 -0.385336 0.0197632)
(0.306989 -0.370364 -0.00286865)
(0.288007 -0.603159 0.020105)
(0.165973 -0.756815 -0.149011)
(0.244696 -0.713101 -0.128699)
(0.244635 -0.7134 -0.128406)
(0.247845 -0.712405 -0.113513)
(0.245782 -0.714346 -0.116296)
(0.246124 -0.714096 -0.113684)
(0.172064 -0.759586 -0.123987)
(0.172028 -0.759061 -0.124597)
(0.246368 -0.714188 -0.115955)
(0.246588 -0.714371 -0.114392)
(0.246417 -0.714481 -0.115588)
(0.246625 -0.713925 -0.114026)
(0.248016 -0.707748 -0.0991821)
(0.243304 -0.713925 -0.12782)
(0.243207 -0.713748 -0.128845)
(0.243256 -0.714059 -0.128503)
(0.242914 -0.713651 -0.127063)
(0.243353 -0.713492 -0.12738)
(-0.165973 -0.756815 -0.149011)
(-0.26557 -0.709641 -0.150378)
(-0.290521 0.41788 0.0911499)
(0.291119 0.62421 0.0374634)
(0.190082 0.413132 0.191101)
(0.190985 0.4121 0.191443)
(0.18576 0.411319 0.192932)
(-0.265973 -0.258786 0.083606)
(-0.268756 -0.265445 0.0792847)
(-0.255402 -0.334683 0.0817749)
(-0.268048 -0.269901 0.0803345)
(-0.265228 -0.26774 0.080896)
(-0.28454 -0.242764 0.0818481)
(-0.284381 -0.242654 0.0818481)
(-0.288226 -0.179135 0.0831421)
(-0.2883 -0.178452 0.0825806)
(-0.290216 -0.178452 0.0835327)
(-0.290741 -0.177756 0.08302)
(-0.356866 -0.150711 0.0911255)
(-0.356097 -0.150418 0.0905151)
(-0.358331 -0.150198 0.0912231)
(-0.358514 -0.149753 0.0906372)
(-0.273004 -0.273819 0.0706909)
(-0.272711 -0.277109 0.0694702)
(-0.252618 -0.338589 0.082605)
(-0.248395 -0.338791 0.0827515)
(-0.266339 -0.268637 0.0819702)
(-0.101666 -0.110104 0.198694)
(-0.0991394 -0.110458 0.198743)
(-0.10368 -0.109811 0.198694)
(-0.0921692 -0.111465 0.19884)
(-0.0835388 -0.11268 0.198938)
(-0.0852112 -0.112436 0.198938)
(-0.0789856 -0.113339 0.199011)
(-0.0641663 -0.115451 0.199207)
(-0.0642273 -0.115433 0.199207)
(-0.0632629 -0.115561 0.199207)
(0.0701111 -0.114603 0.199133)
(0.0853943 -0.112424 0.198914)
(0.0855652 -0.112387 0.198914)
(0.0854919 -0.112387 0.198914)
(0.0861389 -0.112302 0.198914)
(0.101556 -0.11011 0.198694)
(0.286115 -0.606149 0.0195679)
(0.281879 -0.665707 -0.0195679)
(0.275739 -0.690262 -0.133484)
(0.271722 -0.693375 -0.112073)
(0.272125 -0.692844 -0.111951)
(0.271246 -0.693411 -0.111243)
(0.245245 -0.713199 -0.127844)
(0.247321 -0.713284 -0.115491)
(0.24776 -0.7134 -0.115491)
(0.249274 -0.712283 -0.115344)
(0.285516 -0.682394 -0.110193)
(0.280719 -0.68237 -0.109607)
(0.283856 -0.681076 -0.0919556)
(0.277692 -0.68334 -0.108899)
(0.265961 -0.695413 -0.132214)
(0.265961 -0.695279 -0.132361)
(-0.281891 -0.665707 -0.0195679)
(-0.126532 -0.782364 -0.0344604)
(-0.246625 -0.340042 0.0815796)
(0.0641174 -0.115445 0.199207)
(0.0641785 -0.115445 0.199207)
(0.064032 -0.115469 0.199207)
(0.216461 -0.162631 0.15863)
(-0.0232971 -0.398111 0.0745972)
(-0.053241 -0.389401 0.0778687)
(-0.0544739 -0.397891 0.0747192)
(-0.00549927 -0.407181 0.0766479)
(-0.0538269 -0.393039 0.0838013)
(-0.0534241 -0.390982 0.0821411)
(-0.0567444 -0.393661 0.0834595)
(-0.057428 -0.396664 0.0823364)
(-0.139166 -0.368661 0.0898071)
(-0.138641 -0.365512 0.0911255)
(-0.200983 -0.349063 0.0851685)
(-0.16673 -0.36113 0.088562)
(-0.24317 -0.330069 0.0800903)
(-0.242987 -0.329459 0.0789185)
(-0.243878 -0.33331 0.0771851)
(-0.244073 -0.333914 0.0783569)
(-0.243011 -0.330069 0.0758179)
(-0.0451965 -0.382071 0.0823853)
(-0.0451599 -0.381461 0.0812134)
(-0.0458191 -0.38541 0.0795044)
(-0.0458679 -0.386014 0.0806519)
(-0.0454163 -0.382071 0.0781128)
(-0.0451965 -0.381662 0.0811401)
(-0.0883972 -0.378183 0.0857544)
(-0.141498 -0.368002 0.0887573)
(-0.0878479 -0.375046 0.0871216)
(-0.200275 -0.345963 0.0865601)
(-0.148395 -0.36254 0.0922485)
(-0.149164 -0.361746 0.0910522)
(-0.150555 -0.362979 0.0915649)
(-0.151105 -0.36611 0.0901733)
(0.241766 -0.672037 0.017981)
(0.24162 -0.67236 0.0167114)
(0.241022 -0.672763 0.0162231)
(0.239191 -0.673019 0.0172729)
(0.263263 -0.689694 -0.0253784)
(0.261176 -0.692001 -0.0258911)
(0.252606 -0.715707 -0.0461548)
(-0.243378 -0.713492 -0.12738)
(-0.242914 -0.713651 -0.127063)
(-0.172028 -0.759061 -0.124597)
(-0.172064 -0.759586 -0.123987)
(-0.245795 -0.714346 -0.116296)
(-0.246368 -0.714188 -0.115955)
(-0.244647 -0.7134 -0.128406)
(-0.275751 -0.690262 -0.133484)
(-0.144928 -0.763589 -0.0210815)
(-0.143732 -0.764243 -0.0223022)
(-0.12912 -0.782272 -0.0357056)
(-0.129779 -0.782828 -0.0359009)
(-0.129205 -0.782309 -0.036731)
(0.143732 -0.764243 -0.0223022)
(0.144904 -0.763589 -0.0210815)
(0.12652 -0.782364 -0.0344604)
(-0.226544 -0.250662 0.115417)
(-0.227191 -0.266434 0.10697)
(0.14505 -0.766391 -0.0241821)
(-0.246429 -0.714481 -0.115588)
(-0.246588 -0.714371 -0.114392)
(-0.246149 -0.714096 -0.113684)
(-0.246625 -0.713925 -0.114026)
(-0.271246 -0.693411 -0.111243)
(-0.27215 -0.692844 -0.111951)
(-0.271735 -0.693375 -0.112073)
(-0.249298 -0.712283 -0.115344)
(-0.24787 -0.712405 -0.113513)
(-0.247321 -0.713284 -0.115491)
(-0.24776 -0.7134 -0.115491)
(-0.245245 -0.713199 -0.127844)
(-0.24472 -0.713101 -0.128699)
(-0.265973 -0.695413 -0.132214)
(-0.265973 -0.695279 -0.132361)
(-0.277692 -0.68334 -0.108899)
(-0.285516 -0.682394 -0.110193)
(-0.243304 -0.710965 -0.0298462)
(-0.129559 -0.782089 -0.0411255)
(0.129095 -0.783005 -0.0442017)
(0.134418 -0.78049 -0.0448853)
(0.158136 -0.772849 -0.0630737)
(-0.160406 -0.771988 -0.0685181)
(-0.158173 -0.772153 -0.0647583)
(-0.134442 -0.78049 -0.0448853)
(-0.12912 -0.783005 -0.0442017)
(-0.130292 -0.782364 -0.0423706)
(-0.00895386 -0.79722 -0.0338257)
(0.129559 -0.782089 -0.0411255)
(0.130292 -0.782364 -0.0423706)
(0.0122864 -0.79841 -0.0428101)
(0.100323 -0.789346 -0.0454224)
(0.107025 -0.78746 -0.0447632)
(0.154474 -0.770425 -0.0612183)
(0.156451 -0.770377 -0.0629272)
(0.15816 -0.772153 -0.0647583)
(0.160394 -0.771988 -0.0685181)
(0.00230103 -0.805576 -0.0993042)
(-0.00759888 -0.806796 -0.0969849)
(-0.124103 -0.784103 -0.0448364)
(-0.112494 -0.786618 -0.0447632)
(-0.107025 -0.78746 -0.0447632)
(-0.100336 -0.789346 -0.0454224)
(-0.0967346 -0.789621 -0.0451782)
(-0.012323 -0.79841 -0.0428101)
(-0.000189209 -0.803171 -0.0526733)
(0.00383911 -0.795786 -0.0307007)
(0.00310669 -0.795877 -0.0309937)
(-0.00281372 -0.795877 -0.0309937)
(0.003302 -0.796426 -0.0313354)
(-0.00296021 -0.796426 -0.0313354)
(-0.00357056 -0.795786 -0.0307007)
(-0.0121155 -0.796426 -0.0326782)
(-0.0128113 -0.794449 -0.0329712)
(-0.0121887 -0.796646 -0.0332886)
(-0.01297 -0.794626 -0.0336304)
(-0.0118347 -0.796902 -0.0329712)
(-0.00978394 -0.797311 -0.0353882)
(-0.00960083 -0.79744 -0.0347046)
(-0.00930786 -0.79722 -0.0353149)
(-0.00890503 -0.795529 -0.0365356)
(-0.0130188 -0.794278 -0.0324341)
(-0.0126648 -0.795914 -0.031189)
(-0.0127502 -0.796176 -0.0305542)
(-0.0130188 -0.795877 -0.0296265)
(-0.0132874 -0.795877 -0.030896)
(-0.0136536 -0.795529 -0.0298218)
(-0.0142639 -0.793552 -0.0299927)
(-0.0136169 -0.794193 -0.0321899)
(0.000506592 -0.803171 -0.0526001)
(0.00957642 -0.79722 -0.0353149)
(0.009198 -0.795529 -0.0365356)
(0.0100891 -0.797311 -0.0353882)
(0.00978394 -0.795566 -0.036731)
(0.0132874 -0.794626 -0.0336304)
(0.0130798 -0.794449 -0.0329712)
(0.012384 -0.796426 -0.0326782)
(0.0124573 -0.796646 -0.0332886)
(0.0120911 -0.796902 -0.0329712)
(0.00988159 -0.79744 -0.0347046)
(0.00922241 -0.79722 -0.0338257)
(0.0132874 -0.794278 -0.0324341)
(0.0129578 -0.795914 -0.031189)
(0.0130676 -0.796176 -0.0305054)
(0.0138855 -0.795529 -0.0297485)
(0.0135925 -0.795877 -0.030896)
(0.0145081 -0.793552 -0.0299927)
(0.0139465 -0.794193 -0.0321899)
(7.93457e-05 -0.803244 -0.0518677)
(0.00964966 -0.801199 -0.0495972)
(-0.0055481 -0.806491 -0.0976196)
(-0.00753784 -0.806784 -0.0969849)
(-0.0038269 -0.803757 -0.0562134)
(0.100604 -0.791446 -0.049231)
(0.106036 -0.790469 -0.049231)
(0.0591614 -0.802701 -0.0980591)
(0.0450012 -0.80488 -0.0973755)
(0.0496765 -0.804099 -0.0977173)
(0.00698853 -0.805765 -0.0984741)
(0.00574341 -0.806235 -0.0979614)
(-0.106049 -0.790469 -0.049231)
(-0.102167 -0.791171 -0.049231)
(-0.100604 -0.791446 -0.049231)
(0.0105042 -0.806039 -0.0979858)
(0.00525513 -0.806552 -0.0975464)
(-0.0125427 -0.806772 -0.0968628)
(-0.0450134 -0.80488 -0.0973755)
(-0.0496887 -0.804099 -0.0977173)
(0.0355896 -0.805954 -0.0971069)
(0.0261414 -0.806363 -0.0968872)
(0.0262146 -0.806308 -0.0969849)
(0.0107971 -0.806363 -0.0975464)
(-0.0261658 -0.806363 -0.0968872)
(0.132111 -0.783597 -0.0630249)
(0.00283813 -0.808408 -0.0914673)
(-0.00657349 -0.808481 -0.0894165)
(-0.0450867 -0.805045 -0.0970581)
(-0.00675659 -0.808481 -0.0878052)
(-0.0173035 -0.808035 -0.0922974)
(-0.0731873 -0.798813 -0.0528687)
(0.0214539 -0.807828 -0.0704712)
(-0.071283 -0.800735 -0.0601929)
(0.0169006 -0.807669 -0.0696167)
(-0.0788025 -0.799442 -0.0605835)
(0.0788025 -0.799442 -0.0605835)
(-0.132123 -0.783597 -0.0630249)
(0.0360413 -0.804953 -0.0663696)
(-0.0360413 -0.804953 -0.0663696)
(0.00265503 -0.803214 -0.0637329)
(-0.0019104 -0.802859 -0.0637085)
(0.00327759 -0.806131 -0.0663452)
(0.00336304 -0.806113 -0.0662964)
(-0.0972351 -0.792319 -0.0633179)
(-0.0214905 -0.807828 -0.0704712)
(0.0972229 -0.792319 -0.0633179)
(-0.00357056 -0.802957 -0.0630981)
(-0.0205261 -0.807925 -0.092395)
(-0.0173767 -0.80806 -0.0921265)
(-0.017572 -0.808041 -0.0921265)
(0.00652466 -0.808481 -0.088147)
(0.0106995 -0.80842 -0.0890015)
(0.00682983 -0.808481 -0.0895874)
(0.00684204 -0.808481 -0.0881958)
(0.00667114 -0.808481 -0.088269)
(-0.026239 -0.806308 -0.0969849)
(-0.0591736 -0.802701 -0.0980591)
(0.0107361 -0.806625 -0.0971802)
(0.0107361 -0.806375 -0.097522)
(0.0107605 -0.806363 -0.0975464)
(0.0450745 -0.805045 -0.0970581)
(-0.155707 -0.769022 -0.0630249)
(0.0967102 -0.789621 -0.0451782)
(0.129779 -0.782828 -0.0359009)
(0.129193 -0.782309 -0.036731)
(0.129095 -0.782272 -0.0357056)
(0.270868 -0.697098 -0.0424927)
(-0.292267 -0.665482 -0.0368286)
(-0.270868 -0.697098 -0.0424927)
(-0.252618 -0.715707 -0.0461548)
(-0.248016 -0.707748 -0.0991821)
(-0.243219 -0.713748 -0.128845)
(-0.243268 -0.714059 -0.128503)
(-0.243304 -0.713925 -0.12782)
(0.100348 -0.110281 0.198718)
(0.0940491 -0.111191 0.198816)
(0.0867371 -0.112234 0.198914)
(-0.0608704 -0.115921 0.199255)
(-0.0641418 -0.115445 0.199207)
(-0.0641296 -0.115451 0.199207)
(-0.0718323 -0.11434 0.199084)
(-0.0852966 -0.112436 0.198938)
(-0.306281 -0.301865 -0.0168579)
(-0.250787 0.389847 0.110217)
(-0.208746 0.750644 -0.0176147)
(-0.135126 0.766977 0.0329712)
(-0.000177002 0.783505 0.0655151)
(0.000152588 0.783755 0.0661987)
(0.000531006 0.783505 0.065564)
(0.186591 0.413992 0.191492)
(0.187482 0.409079 0.193127)
(0.148224 0.412656 0.19906)
(-0.18576 0.411319 0.192932)
(-0.186591 0.413992 0.191492)
(-0.18952 0.414786 0.190881)
(-0.19007 0.409171 0.192615)
(-0.190985 0.4121 0.191443)
(-0.187494 0.409079 0.193127)
(-0.271674 -0.203287 0.0806763)
(-0.256915 -0.187314 0.121936)
(-0.256305 -0.182986 0.123865)
(-0.293292 -0.17728 0.0760132)
(-0.294269 -0.177591 0.0755737)
(-0.356525 -0.15029 0.0849487)
(-0.276337 -0.273135 0.0640259)
(-0.278351 -0.262271 0.0632935)
(-0.277667 -0.265903 0.063562)
(-0.288702 -0.216171 0.0574585)
(-0.300458 -0.337106 0.020105)
(-0.301703 -0.336295 0.0171265)
(-0.301068 -0.335947 0.0184204)
(-0.30235 -0.385336 0.0197632)
(-0.306281 -0.317166 -0.0186401)
(-0.307001 -0.370364 -0.00286865)
(-0.306464 -0.370364 -0.00213623)
(-0.250958 0.387259 0.11178)
(-0.246332 0.382211 0.117004)
(-0.213153 0.429428 0.167517)
(-0.223651 0.368979 0.164001)
(-0.249689 0.390451 0.112122)
(-0.245685 0.386044 0.117175)
(-0.250909 0.391965 0.111292)
(-0.21535 0.738498 0.0282349)
(-0.216217 0.738412 0.0269897)
(-0.217596 0.738498 0.0275269)
(-0.219342 0.738663 0.0270874)
(-0.218646 0.737863 0.0282349)
(-0.219342 0.736246 0.0299927)
(-0.222443 0.720218 0.0802124)
(-0.145673 0.760086 0.0548462)
(-0.145795 0.759976 0.0552612)
(-0.221442 0.725467 0.072522)
(-0.221063 0.722824 0.0746216)
(-0.214752 0.737424 0.030481)
(-0.213617 0.738541 0.0299927)
(-0.139923 0.76539 0.0345581)
(-0.140973 0.764444 0.0381714)
(-0.199408 0.743069 0.0455444)
(-0.151544 0.761264 0.0473267)
(-0.191241 0.746915 0.0471069)
(-0.152533 0.761264 0.0479858)
(-0.153717 0.759189 0.0539673)
(-0.0031189 0.782303 0.0793823)
(-0.00380249 0.783939 0.0857788)
(-0.00296021 0.784103 0.0874878)
(-0.00281372 0.783755 0.0880493)
(0.003302 0.784103 0.0874634)
(0.00413208 0.783939 0.08573)
(-0.0131897 0.78381 0.089978)
(-0.00895386 0.783755 0.0849976)
(-0.00930786 0.783261 0.083606)
(-0.00978394 0.783261 0.0835327)
(-0.0117615 0.783853 0.0858765)
(-0.0120789 0.783463 0.0863159)
(-0.0126282 0.783627 0.0879272)
(-0.0127136 0.784103 0.0884155)
(-0.0031189 0.782968 0.0883911)
(0.00314331 0.783755 0.0880005)
(0.00391235 0.783755 0.0882935)
(0.012384 0.783463 0.0861694)
(0.0125183 0.783463 0.0856079)
(0.0101257 0.783261 0.0834595)
(0.00957642 0.783261 0.0835571)
(0.00988159 0.783652 0.0839966)
(0.0120911 0.783853 0.0857788)
(0.00929565 0.783755 0.0848999)
(-0.01297 0.784201 0.0893677)
(-0.0136169 0.783755 0.0893677)
(-0.0132629 0.783652 0.0881958)
(0.00715942 0.783902 0.0894409)
(0.0129822 0.783627 0.0877563)
(0.0136292 0.783652 0.0880005)
(0.0135925 0.783853 0.0897339)
(0.0139465 0.78381 0.0891235)
(-0.148224 0.412656 0.19906)
(-0.190094 0.413132 0.191101)
(-0.212933 0.42811 0.171008)
(-0.214618 0.426993 0.170129)
(-0.222784 0.72048 0.0768921)
(-0.223212 0.721103 0.0770142)
(-0.223041 0.718936 0.0800903)
(0.158832 0.457614 0.180603)
(-0.218036 0.491006 0.149841)
(0.193317 0.647556 0.116077)
(-0.192596 0.686661 0.10575)
(-0.193317 0.647556 0.116077)
(-0.269916 0.702121 0.0286743)
(-0.276532 0.663065 0.0623657)
(-0.278461 0.658151 0.0595825)
(-0.280914 0.650082 0.0546509)
(-0.275006 0.66376 0.0536987)
(-0.278424 0.663242 0.0538452)
(-0.290619 0.625143 0.0376099)
(-0.29046 0.626224 0.0351196)
(-0.280426 0.665836 0.0309937)
(-0.280927 0.6642 0.0298706)
(-0.291132 0.62421 0.0374634)
(-0.279022 0.667172 0.0277954)
(-0.278424 0.664371 0.0526733)
(-0.279315 0.667868 0.028186)
(-0.219635 0.48765 0.149768)
(-0.2185 0.132266 0.203528)
(-0.219537 0.0942902 0.203455)
(-0.272211 0.076059 0.0879272)
(-0.27851 0.0707611 0.0806763)
(-0.278705 0.0705414 0.0791626)
(-0.282538 -0.239536 0.0617554)
(-0.282782 -0.238174 0.0616821)
(-0.282452 -0.239932 0.0618042)
(-0.281219 -0.246671 0.0622437)
(-0.282477 -0.239883 0.0618042)
(-0.281561 -0.244809 0.0621216)
(-0.281 -0.247842 0.0623169)
(-0.282452 -0.239938 0.0618042)
(-0.279193 -0.257639 0.0630005)
(-0.276105 -0.274423 0.0641479)
(-0.277582 -0.266385 0.0635864)
(-0.282941 -0.23732 0.0616089)
(-0.285553 -0.26246 0.0573853)
(-0.287128 -0.239297 0.0574341)
(-0.28819 -0.22377 0.0574341)
(-0.220978 0.129202 0.203894)
(-0.221893 0.097226 0.203796)
(-0.230817 0.456558 0.138684)
(-0.22724 0.459097 0.144568)
(-0.111566 0.762985 0.0149536)
(0.0582092 0.787839 -0.0143677)
(0.18609 0.759348 -0.0111694)
(0.190656 0.757651 -0.0112427)
(0.18609 0.759189 -0.0105347)
(0.189313 0.756857 -0.00523682)
(0.185846 0.758102 -0.00516357)
(0.186029 0.758194 -0.00594482)
(0.194794 0.754825 -0.00533447)
(0.192914 0.756821 -0.0110962)
(0.192303 0.757022 -0.0110718)
(0.190533 0.75759 -0.0109009)
(0.194635 0.756155 -0.0109009)
(0.19455 0.756302 -0.0114624)
(0.198004 0.755081 -0.0114624)
(0.198004 0.754984 -0.0110718)
(0.134552 0.775229 -0.00997314)
(0.13454 0.775241 -0.00999756)
(0.135016 0.77673 -0.009729)
(0.13432 0.776773 -0.00870361)
(0.184662 0.759787 -0.00982666)
(0.185309 0.759238 -0.00831299)
(0.183173 0.759348 -0.00533447)
(0.179291 0.760904 -0.00606689)
(0.176703 0.76196 -0.00667725)
(0.184918 0.759018 -0.00667725)
(0.141644 0.773611 -0.00489502)
(0.142194 0.773611 -0.00618896)
(0.135834 0.775858 -0.00623779)
(0.13576 0.775558 -0.00406494)
(0.13493 0.776205 -0.00618896)
(0.135065 0.775742 -0.00411377)
(0.134418 0.774698 -0.00643311)
(0.134589 0.776584 -0.00782471)
(0.138434 0.7741 -0.00980225)
(0.141681 0.774515 -0.0103882)
(0.141498 0.774222 -0.00821533)
(0.142316 0.774265 -0.0103394)
(0.149274 0.771841 -0.0102905)
(0.156915 0.769766 -0.0102905)
(0.177057 0.76243 -0.00965576)
(0.176495 0.762338 -0.00814209)
(0.175653 0.761899 -0.00570068)
(0.175714 0.761789 -0.00528564)
(0.167035 0.765018 -0.00579834)
(0.152167 0.769821 -0.00474854)
(0.148932 0.77164 -0.00858154)
(0.14837 0.771841 -0.00860596)
(0.141766 0.773874 -0.00697021)
(0.142377 0.773911 -0.00831299)
(0.15213 0.769955 -0.00523682)
(0.15683 0.76813 -0.00474854)
(0.15683 0.769156 -0.010022)
(0.157794 0.768826 -0.0104614)
(0.15683 0.768826 -0.00865479)
(0.157318 0.76868 -0.00860596)
(0.165131 0.766269 -0.0105347)
(0.167279 0.76575 -0.00982666)
(0.166046 0.76575 -0.00787354)
(0.175653 0.762778 -0.0101196)
(0.174066 0.762198 -0.00736084)
(0.175653 0.762875 -0.0107056)
(0.164972 0.765201 -0.00496826)
(0.157965 0.767734 -0.00474854)
(0.15683 0.768228 -0.00523682)
(0.157965 0.768039 -0.00618896)
(0.158698 0.767734 -0.00618896)
(0.159052 0.767618 -0.00618896)
(0.159137 0.768039 -0.00882568)
(0.158783 0.768173 -0.00870361)
(0.165131 0.766153 -0.0101929)
(0.158246 0.76788 -0.00618896)
(0.165131 0.765268 -0.00550537)
(0.133844 0.775308 -0.00894775)
(0.196906 0.753647 -0.00550537)
(0.197833 0.753738 -0.00545654)
(0.19776 0.753964 -0.00614014)
(-0.280658 0.0727753 0.0776245)
(-0.281573 0.0747589 0.0775024)
(-0.29682 0.293558 0.0564575)
(-0.296771 0.293356 0.0566528)
(-0.294232 0.376511 0.0745972)
(-0.296832 0.31149 0.0556274)
(-0.296527 0.374222 0.0726929)
(-0.29682 0.374551 0.0715942)
(-0.295087 0.377756 0.0721069)
(-0.294537 0.377628 0.0736938)
(-0.276776 -0.270737 0.0638794)
(-0.296613 -0.231631 0.0853394)
(-0.291425 -0.231064 0.0858765)
(-0.296771 -0.231699 0.0863159)
(-0.35025 -0.187692 0.0913696)
(-0.350482 -0.187442 0.0925171)
(-0.352411 -0.151462 0.112415)
(-0.29632 -0.176254 0.117908)
(-0.290656 -0.177927 0.0858765)
(-0.298688 -0.210764 0.116443)
(-0.304315 -0.207901 0.118201)
(0.279022 0.667172 0.0277954)
(0.279303 0.667868 0.028186)
(0.278412 0.664371 0.0526733)
(0.275006 0.66376 0.0536987)
(0.28089 0.650082 0.0546509)
(0.28111 0.649692 0.055481)
(0.281317 0.65076 0.0554565)
(0.278412 0.663242 0.0538452)
(0.280414 0.665836 0.0309937)
(0.280927 0.6642 0.0298706)
(0.290448 0.626224 0.0351196)
(0.290619 0.625143 0.0376099)
(0.306451 -0.370364 -0.00213623)
(0.155707 -0.371121 0.0834595)
(0.153168 -0.372641 0.0829224)
(0.153705 -0.375266 0.080896)
(0.0592224 -0.382401 0.0903931)
(0.0591125 -0.385611 0.0871216)
(0.0577454 -0.385739 0.0870239)
(0.0575867 -0.385117 0.0864868)
(0.0673157 -0.383701 0.0856567)
(0.0581482 -0.381534 0.0894653)
(0.0572815 -0.383261 0.0893921)
(0.12005 -0.371378 0.0852905)
(-0.0414856 -0.381522 0.084436)
(-0.0415588 -0.380533 0.0835815)
(-0.0411926 -0.383591 0.0805542)
(0.161908 -0.360464 0.0804077)
(0.00482788 -0.385641 0.0848999)
(0.00453491 -0.383188 0.0872925)
(0.0546204 -0.382016 0.0882446)
(-0.0411194 -0.384579 0.0814087)
(0.10246 -0.372739 0.0800903)
(0.0693176 -0.381351 0.0889526)
(0.314276 -0.553006 0.00255127)
(0.300458 -0.337106 0.020105)
(0.213116 0.357846 0.186755)
(-0.226801 0.748221 -0.118713)
(-0.124811 0.792703 -0.107922)
(-0.125104 0.792618 -0.108435)
(-0.21059 0.758798 -0.117908)
(-0.210431 0.758743 -0.118665)
(-0.211469 0.758359 -0.119055)
(0.04151 0.80701 -0.11698)
(-0.04151 0.80701 -0.11698)
(-0.219733 0.754434 -0.116638)
(-0.310345 -0.563828 0.0135376)
(0.220966 0.129202 0.203894)
(0.272797 0.072702 0.0882935)
(0.272137 0.0705963 0.0880005)
(-0.292706 0.4194 -0.119226)
(-0.269171 0.413828 -0.0711792)
(-0.268768 0.386636 -0.113391)
(-0.268768 0.388016 -0.105774)
(-0.274957 0.386636 -0.113391)
(-0.274957 0.388016 -0.105774)
(-0.277313 0.394186 -0.101575)
(-0.280609 0.408231 -0.0855103)
(-0.280609 0.398495 -0.139758)
(-0.277313 0.391147 -0.11925)
(-0.274542 0.398752 -0.154895)
(-0.269171 0.398752 -0.154895)
(-0.277631 0.389426 -0.114832)
(-0.276837 0.398917 -0.0873413)
(-0.274664 0.416965 -0.0723755)
(-0.274542 0.413828 -0.0711792)
(-0.269073 0.416965 -0.0723755)
(-0.275946 0.402481 -0.153699)
(-0.292706 0.484647 -0.146008)
(-0.292706 0.487924 -0.102527)
(-0.305243 0.5345 -0.167126)
(-0.305243 0.437607 -0.210266)
(-0.292706 0.447623 -0.0859497)
(-0.305243 0.419693 -0.0396118)
(-0.305243 0.523447 -0.0616577)
(-0.292706 0.442282 -0.156335)
(-0.305243 0.366647 -0.131458)
(-0.292706 -0.512973 -0.0859497)
(-0.292706 -0.541196 -0.119226)
(-0.292706 -0.472672 -0.102527)
(-0.305243 -0.437173 -0.0616577)
(-0.305243 -0.426096 -0.167126)
(-0.292706 -0.475955 -0.146008)
(-0.305243 -0.522983 -0.210266)
(-0.299176 -0.519211 -0.130603)
(-0.292706 -0.518326 -0.156335)
(-0.305243 -0.593948 -0.131458)
(-0.305243 -0.540921 -0.0396118)
(-0.299176 -0.518173 -0.123962)
(-0.299176 -0.4897 -0.130603)
(0.302264 -0.377151 -0.157727)
(0.309613 0.325754 -0.138245)
(0.304413 0.592319 -0.138416)
(0.292682 0.487924 -0.102527)
(0.292682 0.442282 -0.156335)
(0.276825 0.398917 -0.0873413)
(0.27464 0.416965 -0.0723755)
(0.27453 0.413828 -0.0711792)
(0.269171 0.413828 -0.0711792)
(0.269049 0.416965 -0.0723755)
(0.268768 0.386636 -0.113391)
(0.268768 0.388016 -0.105774)
(0.274933 0.388016 -0.105774)
(0.274933 0.386636 -0.113391)
(0.277618 0.389426 -0.114832)
(0.277301 0.394186 -0.101575)
(0.277301 0.391147 -0.11925)
(0.280597 0.398495 -0.139758)
(0.275946 0.402481 -0.153699)
(0.27453 0.398752 -0.154895)
(0.269171 0.398752 -0.154895)
(0.280597 0.408231 -0.0855103)
(0.292682 0.4194 -0.119226)
(0.292682 0.447623 -0.0859497)