FoamFile
{
    version     2.0;
    format      ascii;
    class       volVectorField;
    location    "0";
    object      pointD;
}

dimensions      [0 1 0 0 0 0 0];

internalField   uniform (0 0 0);

boundaryField
{
    interface
    {
        type            calculated;
        value           uniform (0 0 0);
    }
    bottom
    {
        type            fixedDisplacement;
        value           uniform (0 0 0);
    }
}