/*--------------------------------*- C++ -*----------------------------------*\
| =========                 |                                                 |
| \\      /  F ield         | OpenFOAM: The Open Source CFD Toolbox           |
|  \\    /   O peration     | Version:  2406                                  |
|   \\  /    A nd           | Website:  www.openfoam.com                      |
|    \\/     M anipulation  |                                                 |
\*---------------------------------------------------------------------------*/
FoamFile
{
    version     2.0;
    format      ascii;
    arch        "LSB;label=32;scalar=64";
    class       polyBoundaryMesh;
    location    "0.005/polyMesh";
    object      boundary;
}
// * * * * * * * * * * * * * * * * * * * * * * * * * * * * * * * * * * * * * //

6
(
    inlet
    {
        type            patch;
        nFaces          400;
        startFace       24351;
    }
    outlet
    {
        type            patch;
        nFaces          400;
        startFace       24751;
    }
    walls
    {
        type            wall;
        inGroups        1(wall);
        nFaces          1600;
        startFace       25151;
    }
    stl
    {
        type            wall;
        inGroups        1(wall);
        nFaces          324;
        startFace       26751;
    }
    sphere
    {
        type            wall;
        inGroups        1(wall);
        nFaces          0;
        startFace       27075;
    }
    sphere_slave
    {
        type            wall;
        inGroups        1(wall);
        nFaces          0;
        startFace       27075;
    }
)

// ************************************************************************* //
