
/*--------------------------------*- C++ -*----------------------------------*\
| =========                 |                                                 |
| \      /  F ield         | OpenFOAM: The Open Source CFD Toolbox           |
|  \    /   O peration     | Version:  8                                     |
|   \  /    A nd           | Web:      www.OpenFOAM.org                      |
|    \/     M anipulation  |                                                 |
\*--------------------------------------------------------------------------*/

FoamFile
{
    version     2.0;
    format      ascii;
    class       dictionary;
    object      blockMeshDict;
}

// Define vertices of the block
vertices
(
    (0 0 0)
(2 0 0)
(2 1 0)
(0 1 0)
(0 0 3)
(2 0 3)
(2 1 3)
(0 1 3)
);

// Define a single block using hexahedral cells
blocks
(
    hex (0 1 2 3 4 5 6 7) (10 10 10) simpleGrading (1 1 1)
);

// Boundary conditions
edges
(
    arc 0 1 (1 0.5 0)
);

// Patch definitions
boundary
(
    inlet
{
    type patch;
    faces
    (
        (0 4 7 3)
    );
}
outlet
{
    type patch;
    faces
    (
        (1 5 6 2)
    );
}
walls
{
    type wall;
    faces
    (
        (0 1 5 4)
        (2 3 7 6)
        (0 3 2 1)
        (4 5 6 7)
    );
}
);

// Default internal field
mergePatchPairs
(
    
);
