FoamFile
{
    version     2.0;
    format      ascii;
    class       dictionary;
    object      preciceDict;
}

preciceConfig "/home/kwasi_dp/CFD_FEA_Coupling_GUI/openfoam_case/precice-config.xml";

participant Fluid;

modules (FSI);

interfaces
{
  Interface1
  {
    mesh              Fluid-Mesh;
    patches           (stl);
    locations         faceCenters;
    
    readData
    (
      Displacement
    );
    
    writeData
    (
      Force
    );
  };
};

FSI
{
  rho rho [1 -3 0 0 0 0 0] 1;
}
