/*--------------------------------*- C++ -*----------------------------------*\
| =========                 |                                                 |
| \\      /  F ield         | OpenFOAM: The Open Source CFD Toolbox           |
|  \\    /   O peration     | Version:  2406                                  |
|   \\  /    A nd           | Website:  www.openfoam.com                      |
|    \\/     M anipulation  |                                                 |
\*---------------------------------------------------------------------------*/
FoamFile
{
    version     2.0;
    format      ascii;
    arch        "LSB;label=32;scalar=64";
    class       polyBoundaryMesh;
    location    "0.01/polyMesh";
    object      boundary;
}
// * * * * * * * * * * * * * * * * * * * * * * * * * * * * * * * * * * * * * //

6
(
    inlet
    {
        type            patch;
        nFaces          400;
        startFace       24351;
    }
    outlet
    {
        type            patch;
        nFaces          400;
        startFace       24751;
    }
    frontAndBack
    {
        type            patch;
        nFaces          800;
        startFace       25151;
    }
    lowerWall
    {
        type            wall;
        inGroups        1(wall);
        nFaces          400;
        startFace       25951;
    }
    upperWall
    {
        type            patch;
        nFaces          400;
        startFace       26351;
    }
    stl
    {
        type            wall;
        inGroups        1(wall);
        nFaces          324;
        startFace       26751;
    }
)

// ************************************************************************* //
